# Packages
 &PACKAGES
 useMNC=.TRUE.,
 useOBCS=.TRUE.,
 &
