# Open-boundaries
 &OBCS_PARM01
 OB_Ieast=1*-1,
 OB_Iwest=1*1,
 useOBCSsponge=.FALSE.,
 useOrlanskiWest=.TRUE.,
 useOrlanskiEast=.FALSE.,
 useOBCSbalance=.TRUE.,
 OBCS_monitorFreq=400.,
 OBEtFile='TEMP_E.bin',
 OBEuFile='U_E.bin',
 OBWtFile='TEMP_W.bin',
 OBWuFile='U_W.bin',
 useOBCSprescribe=.TRUE.,
 &
 
# Orlanski parameters
 &OBCS_PARM02
 Cmax=0.45,
 cVelTimeScale=1000.,
 &